16201612
  -OEChem-04272604452D

224227  0     1  0  0  0  0  0999 V2000
   16.4388  -13.7209    0.0000 S   0  0  0  0  0  0  0  0  0  0  0  0
    6.4992   11.6209    0.0000 O   0  0  0  0  0  0  0  0  0  0  0  0
    7.5707    6.5364    0.0000 O   0  0  0  0  0  0  0  0  0  0  0  0
    9.4812    9.5942    0.0000 O   0  0  0  0  0  0  0  0  0  0  0  0
    9.5517   14.6714    0.0000 O   0  0  0  0  0  0  0  0  0  0  0  0
    7.2601    5.5859    0.0000 O   0  0  0  0  0  0  0  0  0  0  0  0
   17.3708  -10.8693    0.0000 O   0  0  0  0  0  0  0  0  0  0  0  0
   17.6349   -7.2734    0.0000 O   0  0  0  0  0  0  0  0  0  0  0  0
    6.4676   -5.2017    0.0000 O   0  0  0  0  0  0  0  0  0  0  0  0
    4.7748   -2.0183    0.0000 O   0  0  0  0  0  0  0  0  0  0  0  0
    4.8994    9.5136    0.0000 O   0  0  0  0  0  0  0  0  0  0  0  0
    9.7138   -3.6325    0.0000 O   0  0  0  0  0  0  0  0  0  0  0  0
   11.4067   -6.8159    0.0000 O   0  0  0  0  0  0  0  0  0  0  0  0
    6.6853    1.0395    0.0000 O   0  0  0  0  0  0  0  0  0  0  0  0
    6.9959    1.9900    0.0000 O   0  0  0  0  0  0  0  0  0  0  0  0
   14.6529   -5.2468    0.0000 O   0  0  0  0  0  0  0  0  0  0  0  0
   13.7674  -10.7437    0.0000 O   0  0  0  0  0  0  0  0  0  0  0  0
    8.9995   -0.2429    0.0000 O   0  0  0  0  0  0  0  0  0  0  0  0
    3.7032    3.0662    0.0000 O   0  0  0  0  0  0  0  0  0  0  0  0
    8.7400   13.0850    0.0000 N   0  0  0  0  0  0  0  0  0  0  0  0
    8.1921    8.4375    0.0000 N   0  0  0  0  0  0  0  0  0  0  0  0
    8.1455   11.0828    0.0000 N   0  0  0  0  0  0  0  0  0  0  0  0
    9.2171    5.9983    0.0000 N   0  0  0  0  0  0  0  0  0  0  0  0
   16.3457   -8.4302    0.0000 N   0  0  0  0  0  0  0  0  0  0  0  0
    7.6173    3.8911    0.0000 N   0  0  0  0  0  0  0  0  0  0  0  0
    6.4211   -2.5563    0.0000 N   0  0  0  0  0  0  0  0  0  0  0  0
   15.7244  -10.3312    0.0000 N   0  0  0  0  0  0  0  0  0  0  0  0
   11.4382   10.0066    0.0000 N   0  0  0  0  0  0  0  0  0  0  0  0
   10.0710   -5.3273    0.0000 N   0  0  0  0  0  0  0  0  0  0  0  0
    7.7568   -4.0449    0.0000 N   0  0  0  0  0  0  0  0  0  0  0  0
    5.3961   -0.1172    0.0000 N   0  0  0  0  0  0  0  0  0  0  0  0
   15.0101   -6.9416    0.0000 N   0  0  0  0  0  0  0  0  0  0  0  0
    5.3496    2.5281    0.0000 N   0  0  0  0  0  0  0  0  0  0  0  0
    4.8213   -6.2731    0.0000 N   0  0  0  0  0  0  0  0  0  0  0  0
   12.6959   -5.6592    0.0000 N   0  0  0  0  0  0  0  0  0  0  0  0
    4.5422   11.2085    0.0000 N   0  0  0  0  0  0  0  0  0  0  0  0
   17.6860   -4.6658    0.0000 N   0  0  0  0  0  0  0  0  0  0  0  0
   14.1246  -12.4385    0.0000 N   0  0  0  0  0  0  0  0  0  0  0  0
   12.7274   11.1634    0.0000 N   0  0  0  0  0  0  0  0  0  0  0  0
   18.8866   -5.7505    0.0000 N   0  0  0  0  0  0  0  0  0  0  0  0
   13.0846    9.4686    0.0000 N   0  0  0  0  0  0  0  0  0  0  0  0
    8.6423    1.4520    0.0000 N   0  0  0  0  0  0  0  0  0  0  0  0
    2.4141    1.9095    0.0000 N   0  0  0  0  0  0  0  0  0  0  0  0
    7.7884   12.7776    0.0000 C   0  0  1  0  0  0  0  0  0  0  0  0
    8.8599    7.6932    0.0000 C   0  0  1  0  0  0  0  0  0  0  0  0
    7.2020   13.5877    0.0000 C   0  0  0  0  0  0  0  0  0  0  0  0
    7.8349   10.1323    0.0000 C   0  0  1  0  0  0  0  0  0  0  0  0
    8.9064    5.0478    0.0000 C   0  0  1  0  0  0  0  0  0  0  0  0
    9.5743    4.3035    0.0000 C   0  0  0  0  0  0  0  0  0  0  0  0
    9.8384    7.8994    0.0000 C   0  0  0  0  0  0  0  0  0  0  0  0
    7.7912   14.3957    0.0000 C   0  0  0  0  0  0  0  0  0  0  0  0
   10.5528    4.5097    0.0000 C   0  0  0  0  0  0  0  0  0  0  0  0
    7.4777   11.8271    0.0000 C   0  0  0  0  0  0  0  0  0  0  0  0
    6.8564    9.9261    0.0000 C   0  0  0  0  0  0  0  0  0  0  0  0
    8.5492    6.7426    0.0000 C   0  0  0  0  0  0  0  0  0  0  0  0
    8.5027    9.3880    0.0000 C   0  0  0  0  0  0  0  0  0  0  0  0
   10.1491    8.8499    0.0000 C   0  0  0  0  0  0  0  0  0  0  0  0
    8.7417   14.0850    0.0000 C   0  0  0  0  0  0  0  0  0  0  0  0
   17.9921   -8.9683    0.0000 C   0  0  0  0  0  0  0  0  0  0  0  0
   17.0136   -9.1745    0.0000 C   0  0  1  0  0  0  0  0  0  0  0  0
   18.6599   -9.7126    0.0000 C   0  0  0  0  0  0  0  0  0  0  0  0
    7.9279    4.8416    0.0000 C   0  0  0  0  0  0  0  0  0  0  0  0
    6.1885   10.6704    0.0000 C   0  0  0  0  0  0  0  0  0  0  0  0
   11.2206    3.7654    0.0000 C   0  0  0  0  0  0  0  0  0  0  0  0
   10.8634    5.4603    0.0000 C   0  0  0  0  0  0  0  0  0  0  0  0
   11.1276    9.0561    0.0000 C   0  0  0  0  0  0  0  0  0  0  0  0
    6.1105   -3.5069    0.0000 C   0  0  1  0  0  0  0  0  0  0  0  0
    5.1320   -3.7131    0.0000 C   0  0  0  0  0  0  0  0  0  0  0  0
   11.0495   -5.1211    0.0000 C   0  0  1  0  0  0  0  0  0  0  0  0
   16.7029  -10.1250    0.0000 C   0  0  0  0  0  0  0  0  0  0  0  0
   15.9886   -6.7354    0.0000 C   0  0  2  0  0  0  0  0  0  0  0  0
    6.0639   -0.8615    0.0000 C   0  0  1  0  0  0  0  0  0  0  0  0
   11.3602   -4.1706    0.0000 C   0  0  0  0  0  0  0  0  0  0  0  0
   19.6384   -9.5064    0.0000 C   0  0  0  0  0  0  0  0  0  0  0  0
   18.3493  -10.6631    0.0000 C   0  0  0  0  0  0  0  0  0  0  0  0
    4.8213   -4.6636    0.0000 C   0  0  0  0  0  0  0  0  0  0  0  0
   16.6564   -7.4797    0.0000 C   0  0  0  0  0  0  0  0  0  0  0  0
    6.7783   -4.2512    0.0000 C   0  0  0  0  0  0  0  0  0  0  0  0
    8.4247   -4.7892    0.0000 C   0  0  2  0  0  0  0  0  0  0  0  0
    7.0425   -0.6553    0.0000 C   0  0  0  0  0  0  0  0  0  0  0  0
    5.7533   -1.8120    0.0000 C   0  0  0  0  0  0  0  0  0  0  0  0
    6.6388    3.6849    0.0000 C   0  0  0  0  0  0  0  0  0  0  0  0
   15.4138  -11.2817    0.0000 C   0  0  1  0  0  0  0  0  0  0  0  0
   16.2992   -5.7848    0.0000 C   0  0  0  0  0  0  0  0  0  0  0  0
    3.8751   -4.9683    0.0000 C   0  0  0  0  0  0  0  0  0  0  0  0
    5.2100   10.4642    0.0000 C   0  0  0  0  0  0  0  0  0  0  0  0
    5.0389    1.5776    0.0000 C   0  0  2  0  0  0  0  0  0  0  0  0
    9.4032   -4.5830    0.0000 C   0  0  0  0  0  0  0  0  0  0  0  0
    3.8751   -5.9683    0.0000 C   0  0  0  0  0  0  0  0  0  0  0  0
   11.7174   -5.8654    0.0000 C   0  0  0  0  0  0  0  0  0  0  0  0
    5.4049   -5.4683    0.0000 C   0  0  0  0  0  0  0  0  0  0  0  0
   16.0816  -12.0260    0.0000 C   0  0  0  0  0  0  0  0  0  0  0  0
   12.3387   -3.9644    0.0000 C   0  0  0  0  0  0  0  0  0  0  0  0
   10.6923   -3.4263    0.0000 C   0  0  0  0  0  0  0  0  0  0  0  0
    5.7068    0.8333    0.0000 C   0  0  0  0  0  0  0  0  0  0  0  0
    6.3281    2.7343    0.0000 C   0  0  0  0  0  0  0  0  0  0  0  0
    7.3531    0.2952    0.0000 C   0  0  0  0  0  0  0  0  0  0  0  0
   17.2777   -5.5786    0.0000 C   0  0  0  0  0  0  0  0  0  0  0  0
    4.0604    1.3714    0.0000 C   0  0  0  0  0  0  0  0  0  0  0  0
    8.1140   -5.7398    0.0000 C   0  0  0  0  0  0  0  0  0  0  0  0
   13.3637   -6.4035    0.0000 C   0  0  0  0  0  0  0  0  0  0  0  0
   14.3422   -6.1973    0.0000 C   0  0  0  0  0  0  0  0  0  0  0  0
    3.0091   -4.4683    0.0000 C   0  0  0  0  0  0  0  0  0  0  0  0
   14.4352  -11.4880    0.0000 C   0  0  0  0  0  0  0  0  0  0  0  0
    3.0091   -6.4683    0.0000 C   0  0  0  0  0  0  0  0  0  0  0  0
   15.7709  -12.9766    0.0000 C   0  0  0  0  0  0  0  0  0  0  0  0
   12.4167   10.2129    0.0000 C   0  0  0  0  0  0  0  0  0  0  0  0
    2.1430   -4.9683    0.0000 C   0  0  0  0  0  0  0  0  0  0  0  0
    2.1430   -5.9683    0.0000 C   0  0  0  0  0  0  0  0  0  0  0  0
    8.3316    0.5014    0.0000 C   0  0  0  0  0  0  0  0  0  0  0  0
   18.0197   -6.2490    0.0000 C   0  0  0  0  0  0  0  0  0  0  0  0
    3.3926    2.1157    0.0000 C   0  0  0  0  0  0  0  0  0  0  0  0
   18.6804   -4.7720    0.0000 C   0  0  0  0  0  0  0  0  0  0  0  0
   16.1281  -14.6714    0.0000 C   0  0  0  0  0  0  0  0  0  0  0  0
    8.2260   12.3385    0.0000 H   0  0  0  0  0  0  0  0  0  0  0  0
    9.0525    8.2825    0.0000 H   0  0  0  0  0  0  0  0  0  0  0  0
    6.7419   14.0033    0.0000 H   0  0  0  0  0  0  0  0  0  0  0  0
    6.7405   13.1736    0.0000 H   0  0  0  0  0  0  0  0  0  0  0  0
    8.4416   10.2601    0.0000 H   0  0  0  0  0  0  0  0  0  0  0  0
    9.5131    5.1757    0.0000 H   0  0  0  0  0  0  0  0  0  0  0  0
    9.0479    3.9759    0.0000 H   0  0  0  0  0  0  0  0  0  0  0  0
    9.8055    3.7283    0.0000 H   0  0  0  0  0  0  0  0  0  0  0  0
    9.8590    7.2797    0.0000 H   0  0  0  0  0  0  0  0  0  0  0  0
   10.4522    7.8120    0.0000 H   0  0  0  0  0  0  0  0  0  0  0  0
    8.0443   14.9616    0.0000 H   0  0  0  0  0  0  0  0  0  0  0  0
    7.2548   14.7066    0.0000 H   0  0  0  0  0  0  0  0  0  0  0  0
   10.3602    3.9204    0.0000 H   0  0  0  0  0  0  0  0  0  0  0  0
    6.3300    9.5984    0.0000 H   0  0  0  0  0  0  0  0  0  0  0  0
    7.0876    9.3508    0.0000 H   0  0  0  0  0  0  0  0  0  0  0  0
    9.2409   12.7197    0.0000 H   0  0  0  0  0  0  0  0  0  0  0  0
    7.5854    8.3096    0.0000 H   0  0  0  0  0  0  0  0  0  0  0  0
    8.7522   11.2107    0.0000 H   0  0  0  0  0  0  0  0  0  0  0  0
    9.8238    6.1262    0.0000 H   0  0  0  0  0  0  0  0  0  0  0  0
   10.1285    9.4696    0.0000 H   0  0  0  0  0  0  0  0  0  0  0  0
    9.5353    8.9373    0.0000 H   0  0  0  0  0  0  0  0  0  0  0  0
   18.5184   -8.6406    0.0000 H   0  0  0  0  0  0  0  0  0  0  0  0
   17.7608   -8.3930    0.0000 H   0  0  0  0  0  0  0  0  0  0  0  0
   16.4069   -9.3023    0.0000 H   0  0  0  0  0  0  0  0  0  0  0  0
   18.0533   -9.8404    0.0000 H   0  0  0  0  0  0  0  0  0  0  0  0
    6.7149   10.9980    0.0000 H   0  0  0  0  0  0  0  0  0  0  0  0
    5.9573   11.2456    0.0000 H   0  0  0  0  0  0  0  0  0  0  0  0
   10.7591    3.3514    0.0000 H   0  0  0  0  0  0  0  0  0  0  0  0
   11.6347    3.3040    0.0000 H   0  0  0  0  0  0  0  0  0  0  0  0
   11.6821    4.1795    0.0000 H   0  0  0  0  0  0  0  0  0  0  0  0
   11.4528    5.2677    0.0000 H   0  0  0  0  0  0  0  0  0  0  0  0
   11.0560    6.0496    0.0000 H   0  0  0  0  0  0  0  0  0  0  0  0
   10.2741    5.6529    0.0000 H   0  0  0  0  0  0  0  0  0  0  0  0
   11.1481    8.4365    0.0000 H   0  0  0  0  0  0  0  0  0  0  0  0
   11.7414    8.9688    0.0000 H   0  0  0  0  0  0  0  0  0  0  0  0
    5.6964   -3.0454    0.0000 H   0  0  0  0  0  0  0  0  0  0  0  0
    5.1114   -3.0934    0.0000 H   0  0  0  0  0  0  0  0  0  0  0  0
    4.5181   -3.6257    0.0000 H   0  0  0  0  0  0  0  0  0  0  0  0
   15.7391   -8.5580    0.0000 H   0  0  0  0  0  0  0  0  0  0  0  0
   10.8569   -5.7104    0.0000 H   0  0  0  0  0  0  0  0  0  0  0  0
   15.7959   -7.3247    0.0000 H   0  0  0  0  0  0  0  0  0  0  0  0
    6.2566   -0.2722    0.0000 H   0  0  0  0  0  0  0  0  0  0  0  0
   11.5528   -3.5813    0.0000 H   0  0  0  0  0  0  0  0  0  0  0  0
    8.0313    3.4296    0.0000 H   0  0  0  0  0  0  0  0  0  0  0  0
   19.7663  -10.1130    0.0000 H   0  0  0  0  0  0  0  0  0  0  0  0
   20.2451   -9.3785    0.0000 H   0  0  0  0  0  0  0  0  0  0  0  0
   19.5106   -8.8997    0.0000 H   0  0  0  0  0  0  0  0  0  0  0  0
   17.7599  -10.4705    0.0000 H   0  0  0  0  0  0  0  0  0  0  0  0
   18.1567  -11.2524    0.0000 H   0  0  0  0  0  0  0  0  0  0  0  0
   18.9386  -10.8557    0.0000 H   0  0  0  0  0  0  0  0  0  0  0  0
    7.0278   -2.4285    0.0000 H   0  0  0  0  0  0  0  0  0  0  0  0
    8.6173   -4.1999    0.0000 H   0  0  0  0  0  0  0  0  0  0  0  0
    7.0630   -1.2750    0.0000 H   0  0  0  0  0  0  0  0  0  0  0  0
    7.6563   -0.7426    0.0000 H   0  0  0  0  0  0  0  0  0  0  0  0
   14.9997  -10.8203    0.0000 H   0  0  0  0  0  0  0  0  0  0  0  0
    6.6182    4.3045    0.0000 H   0  0  0  0  0  0  0  0  0  0  0  0
    6.0249    3.7722    0.0000 H   0  0  0  0  0  0  0  0  0  0  0  0
   16.2787   -5.1652    0.0000 H   0  0  0  0  0  0  0  0  0  0  0  0
   15.6854   -5.6975    0.0000 H   0  0  0  0  0  0  0  0  0  0  0  0
   15.3104   -9.8698    0.0000 H   0  0  0  0  0  0  0  0  0  0  0  0
   11.0242   10.4681    0.0000 H   0  0  0  0  0  0  0  0  0  0  0  0
    4.6249    2.0391    0.0000 H   0  0  0  0  0  0  0  0  0  0  0  0
    9.8784   -5.9167    0.0000 H   0  0  0  0  0  0  0  0  0  0  0  0
    7.9494   -3.4556    0.0000 H   0  0  0  0  0  0  0  0  0  0  0  0
    4.7894   -0.2451    0.0000 H   0  0  0  0  0  0  0  0  0  0  0  0
    6.0249   -5.4683    0.0000 H   0  0  0  0  0  0  0  0  0  0  0  0
   14.8174   -7.5309    0.0000 H   0  0  0  0  0  0  0  0  0  0  0  0
   16.6285  -12.3181    0.0000 H   0  0  0  0  0  0  0  0  0  0  0  0
   16.4642  -11.5381    0.0000 H   0  0  0  0  0  0  0  0  0  0  0  0
   12.4665   -4.5710    0.0000 H   0  0  0  0  0  0  0  0  0  0  0  0
   12.9454   -3.8365    0.0000 H   0  0  0  0  0  0  0  0  0  0  0  0
   12.2108   -3.3577    0.0000 H   0  0  0  0  0  0  0  0  0  0  0  0
   11.1538   -3.0122    0.0000 H   0  0  0  0  0  0  0  0  0  0  0  0
   10.2783   -2.9648    0.0000 H   0  0  0  0  0  0  0  0  0  0  0  0
   10.2309   -3.8404    0.0000 H   0  0  0  0  0  0  0  0  0  0  0  0
    7.3326    0.9149    0.0000 H   0  0  0  0  0  0  0  0  0  0  0  0
    6.7393    0.3826    0.0000 H   0  0  0  0  0  0  0  0  0  0  0  0
    4.9355    2.9896    0.0000 H   0  0  0  0  0  0  0  0  0  0  0  0
    5.0139   -6.8624    0.0000 H   0  0  0  0  0  0  0  0  0  0  0  0
    3.5341    1.0438    0.0000 H   0  0  0  0  0  0  0  0  0  0  0  0
    4.2917    0.7961    0.0000 H   0  0  0  0  0  0  0  0  0  0  0  0
    7.5247   -5.5472    0.0000 H   0  0  0  0  0  0  0  0  0  0  0  0
    7.9214   -6.3291    0.0000 H   0  0  0  0  0  0  0  0  0  0  0  0
    8.7033   -5.9324    0.0000 H   0  0  0  0  0  0  0  0  0  0  0  0
   12.8373   -6.7311    0.0000 H   0  0  0  0  0  0  0  0  0  0  0  0
   13.5950   -6.9788    0.0000 H   0  0  0  0  0  0  0  0  0  0  0  0
   12.8885   -5.0699    0.0000 H   0  0  0  0  0  0  0  0  0  0  0  0
    3.0091   -3.8483    0.0000 H   0  0  0  0  0  0  0  0  0  0  0  0
    3.0091   -7.0883    0.0000 H   0  0  0  0  0  0  0  0  0  0  0  0
   15.2240  -12.6845    0.0000 H   0  0  0  0  0  0  0  0  0  0  0  0
   15.3884  -13.4645    0.0000 H   0  0  0  0  0  0  0  0  0  0  0  0
    3.9355   11.0806    0.0000 H   0  0  0  0  0  0  0  0  0  0  0  0
    4.7348   11.7978    0.0000 H   0  0  0  0  0  0  0  0  0  0  0  0
    1.6061   -4.6583    0.0000 H   0  0  0  0  0  0  0  0  0  0  0  0
    1.6061   -6.2783    0.0000 H   0  0  0  0  0  0  0  0  0  0  0  0
   17.3770   -4.1283    0.0000 H   0  0  0  0  0  0  0  0  0  0  0  0
   17.9538   -6.8655    0.0000 H   0  0  0  0  0  0  0  0  0  0  0  0
   19.0960   -4.3120    0.0000 H   0  0  0  0  0  0  0  0  0  0  0  0
   13.5179  -12.5663    0.0000 H   0  0  0  0  0  0  0  0  0  0  0  0
   14.5386  -12.8999    0.0000 H   0  0  0  0  0  0  0  0  0  0  0  0
   13.3341   11.2912    0.0000 H   0  0  0  0  0  0  0  0  0  0  0  0
   12.3133   11.6248    0.0000 H   0  0  0  0  0  0  0  0  0  0  0  0
   13.6913    9.5964    0.0000 H   0  0  0  0  0  0  0  0  0  0  0  0
    9.2490    1.5798    0.0000 H   0  0  0  0  0  0  0  0  0  0  0  0
    8.2282    1.9134    0.0000 H   0  0  0  0  0  0  0  0  0  0  0  0
    2.0000    2.3709    0.0000 H   0  0  0  0  0  0  0  0  0  0  0  0
    2.2215    1.3202    0.0000 H   0  0  0  0  0  0  0  0  0  0  0  0
   15.5388  -14.4788    0.0000 H   0  0  0  0  0  0  0  0  0  0  0  0
   15.9355  -15.2607    0.0000 H   0  0  0  0  0  0  0  0  0  0  0  0
   16.7174  -14.8640    0.0000 H   0  0  0  0  0  0  0  0  0  0  0  0
  1106  1  0  0  0  0
  1114  1  0  0  0  0
  2 53  2  0  0  0  0
  3 55  2  0  0  0  0
  4 56  2  0  0  0  0
  5 58  2  0  0  0  0
  6 62  2  0  0  0  0
  7 70  2  0  0  0  0
  8 77  2  0  0  0  0
  9 78  2  0  0  0  0
 10 81  2  0  0  0  0
 11 86  2  0  0  0  0
 12 88  2  0  0  0  0
 13 90  2  0  0  0  0
 14 95  2  0  0  0  0
 15 96  2  0  0  0  0
 16102  2  0  0  0  0
 17104  2  0  0  0  0
 18110  2  0  0  0  0
 19112  2  0  0  0  0
 20 44  1  0  0  0  0
 20 58  1  0  0  0  0
 20130  1  0  0  0  0
 45 21  1  1  0  0  0
 21 56  1  0  0  0  0
 21131  1  0  0  0  0
 47 22  1  6  0  0  0
 22 53  1  0  0  0  0
 22132  1  0  0  0  0
 48 23  1  1  0  0  0
 23 55  1  0  0  0  0
 23133  1  0  0  0  0
 60 24  1  1  0  0  0
 24 77  1  0  0  0  0
 24153  1  0  0  0  0
 25 62  1  0  0  0  0
 25 82  1  0  0  0  0
 25158  1  0  0  0  0
 67 26  1  6  0  0  0
 26 81  1  0  0  0  0
 26165  1  0  0  0  0
 27 70  1  0  0  0  0
 83 27  1  1  0  0  0
 27174  1  0  0  0  0
 28 66  1  0  0  0  0
 28107  1  0  0  0  0
 28175  1  0  0  0  0
 69 29  1  1  0  0  0
 29 88  1  0  0  0  0
 29177  1  0  0  0  0
 30 78  1  0  0  0  0
 79 30  1  6  0  0  0
 30178  1  0  0  0  0
 72 31  1  1  0  0  0
 31 95  1  0  0  0  0
 31179  1  0  0  0  0
 71 32  1  1  0  0  0
 32102  1  0  0  0  0
 32181  1  0  0  0  0
 87 33  1  6  0  0  0
 33 96  1  0  0  0  0
 33192  1  0  0  0  0
 34 89  1  0  0  0  0
 34 91  1  0  0  0  0
 34193  1  0  0  0  0
 35 90  1  0  0  0  0
 35101  1  0  0  0  0
 35201  1  0  0  0  0
 36 86  1  0  0  0  0
 36206  1  0  0  0  0
 36207  1  0  0  0  0
 37 98  1  0  0  0  0
 37113  1  0  0  0  0
 37210  1  0  0  0  0
 38104  1  0  0  0  0
 38213  1  0  0  0  0
 38214  1  0  0  0  0
 39107  1  0  0  0  0
 39215  1  0  0  0  0
 39216  1  0  0  0  0
 40111  1  0  0  0  0
 40113  2  0  0  0  0
 41107  2  0  0  0  0
 41217  1  0  0  0  0
 42110  1  0  0  0  0
 42218  1  0  0  0  0
 42219  1  0  0  0  0
 43112  1  0  0  0  0
 43220  1  0  0  0  0
 43221  1  0  0  0  0
 44 46  1  0  0  0  0
 44 53  1  6  0  0  0
 44115  1  0  0  0  0
 45 50  1  0  0  0  0
 45 55  1  0  0  0  0
 45116  1  0  0  0  0
 46 51  1  0  0  0  0
 46117  1  0  0  0  0
 46118  1  0  0  0  0
 47 54  1  0  0  0  0
 47 56  1  0  0  0  0
 47119  1  0  0  0  0
 48 49  1  0  0  0  0
 48 62  1  0  0  0  0
 48120  1  0  0  0  0
 49 52  1  0  0  0  0
 49121  1  0  0  0  0
 49122  1  0  0  0  0
 50 57  1  0  0  0  0
 50123  1  0  0  0  0
 50124  1  0  0  0  0
 51 58  1  0  0  0  0
 51125  1  0  0  0  0
 51126  1  0  0  0  0
 52 64  1  0  0  0  0
 52 65  1  0  0  0  0
 52127  1  0  0  0  0
 54 63  1  0  0  0  0
 54128  1  0  0  0  0
 54129  1  0  0  0  0
 57 66  1  0  0  0  0
 57134  1  0  0  0  0
 57135  1  0  0  0  0
 59 60  1  0  0  0  0
 59 61  1  0  0  0  0
 59136  1  0  0  0  0
 59137  1  0  0  0  0
 60 70  1  0  0  0  0
 60138  1  0  0  0  0
 61 74  1  0  0  0  0
 61 75  1  0  0  0  0
 61139  1  0  0  0  0
 63 86  1  0  0  0  0
 63140  1  0  0  0  0
 63141  1  0  0  0  0
 64142  1  0  0  0  0
 64143  1  0  0  0  0
 64144  1  0  0  0  0
 65145  1  0  0  0  0
 65146  1  0  0  0  0
 65147  1  0  0  0  0
 66148  1  0  0  0  0
 66149  1  0  0  0  0
 67 68  1  0  0  0  0
 67 78  1  0  0  0  0
 67150  1  0  0  0  0
 68 76  1  0  0  0  0
 68151  1  0  0  0  0
 68152  1  0  0  0  0
 69 73  1  0  0  0  0
 69 90  1  0  0  0  0
 69154  1  0  0  0  0
 71 77  1  0  0  0  0
 71 84  1  0  0  0  0
 71155  1  0  0  0  0
 72 80  1  0  0  0  0
 72 81  1  0  0  0  0
 72156  1  0  0  0  0
 73 93  1  0  0  0  0
 73 94  1  0  0  0  0
 73157  1  0  0  0  0
 74159  1  0  0  0  0
 74160  1  0  0  0  0
 74161  1  0  0  0  0
 75162  1  0  0  0  0
 75163  1  0  0  0  0
 75164  1  0  0  0  0
 76 85  1  0  0  0  0
 76 91  2  0  0  0  0
 79 88  1  0  0  0  0
 79100  1  0  0  0  0
 79166  1  0  0  0  0
 80 97  1  0  0  0  0
 80167  1  0  0  0  0
 80168  1  0  0  0  0
 82 96  1  0  0  0  0
 82170  1  0  0  0  0
 82171  1  0  0  0  0
 83 92  1  0  0  0  0
 83104  1  0  0  0  0
 83169  1  0  0  0  0
 84 98  1  0  0  0  0
 84172  1  0  0  0  0
 84173  1  0  0  0  0
 85 89  1  0  0  0  0
 85103  2  0  0  0  0
 87 95  1  0  0  0  0
 87 99  1  0  0  0  0
 87176  1  0  0  0  0
 89105  2  0  0  0  0
 91180  1  0  0  0  0
 92106  1  0  0  0  0
 92182  1  0  0  0  0
 92183  1  0  0  0  0
 93184  1  0  0  0  0
 93185  1  0  0  0  0
 93186  1  0  0  0  0
 94187  1  0  0  0  0
 94188  1  0  0  0  0
 94189  1  0  0  0  0
 97110  1  0  0  0  0
 97190  1  0  0  0  0
 97191  1  0  0  0  0
 98111  2  0  0  0  0
 99112  1  0  0  0  0
 99194  1  0  0  0  0
 99195  1  0  0  0  0
100196  1  0  0  0  0
100197  1  0  0  0  0
100198  1  0  0  0  0
101102  1  0  0  0  0
101199  1  0  0  0  0
101200  1  0  0  0  0
103108  1  0  0  0  0
103202  1  0  0  0  0
105109  1  0  0  0  0
105203  1  0  0  0  0
106204  1  0  0  0  0
106205  1  0  0  0  0
108109  2  0  0  0  0
108208  1  0  0  0  0
109209  1  0  0  0  0
111211  1  0  0  0  0
113212  1  0  0  0  0
114222  1  0  0  0  0
114223  1  0  0  0  0
114224  1  0  0  0  0
M  END
> <PUBCHEM_COMPOUND_CID>
16201612

> <PUBCHEM_COMPOUND_CANONICALIZED>
1

> <PUBCHEM_CACTVS_COMPLEXITY>
3410

> <PUBCHEM_CACTVS_HBOND_ACCEPTOR>
21

> <PUBCHEM_CACTVS_HBOND_DONOR>
23

> <PUBCHEM_CACTVS_ROTATABLE_BOND>
52

> <PUBCHEM_CACTVS_SUBSKEYS>
AAADcfB//gBAAAAAAAAAAAAAAAAAAWLFgAAwAAAAAAAAAFgB/AAAHgQQAAAADSjF3gS/0PbJkAioAzV3dACCgC2xErAJ2aG4dJiIaPrg2bGUIAholgLIyCcdi8COgAAAAAACAAAAAAAAAAQAAAAAAAAAAA==

> <PUBCHEM_IUPAC_OPENEYE_NAME>
(2S)-N-[(1S)-1-[[(1S)-1-[[2-[[(1S)-3-amino-1-[[(1S)-4-amino-1-[[(1S)-2-[[(1S)-2-[[(1S)-1-[[2-[[(1S)-2-[[(1S)-1-[[(1S)-1-carbamoyl-3-methylsulfanyl-propyl]carbamoyl]-3-methyl-butyl]amino]-1-(1H-imidazol-5-ylmethyl)-2-oxo-ethyl]amino]-2-oxo-ethyl]carbamoyl]-2-methyl-propyl]amino]-1-methyl-2-oxo-ethyl]amino]-1-(1H-indol-3-ylmethyl)-2-oxo-ethyl]carbamoyl]-4-oxo-butyl]carbamoyl]-3-oxo-propyl]amino]-2-oxo-ethyl]carbamoyl]-3-methyl-butyl]carbamoyl]-4-guanidino-butyl]-2-[[(2S)-5-oxopyrrolidine-2-carbonyl]amino]pentanediamide

> <PUBCHEM_IUPAC_CAS_NAME>
(2S)-N-[(2S)-1-[[(2S)-1-[[2-[[(2S)-4-amino-1-[[(2S)-5-amino-1-[[(2S)-1-[[(2S)-1-[[(2S)-1-[[2-[[(2S)-1-[[(2S)-1-[[(2S)-1-amino-4-(methylthio)-1-oxobutan-2-yl]amino]-4-methyl-1-oxopentan-2-yl]amino]-3-(1H-imidazol-5-yl)-1-oxopropan-2-yl]amino]-2-oxoethyl]amino]-3-methyl-1-oxobutan-2-yl]amino]-1-oxopropan-2-yl]amino]-3-(1H-indol-3-yl)-1-oxopropan-2-yl]amino]-1,5-dioxopentan-2-yl]amino]-1,4-dioxobutan-2-yl]amino]-2-oxoethyl]amino]-4-methyl-1-oxopentan-2-yl]amino]-5-carbamimidamido-1-oxopentan-2-yl]-2-[[oxo-[(2S)-5-oxo-2-pyrrolidinyl]methyl]amino]pentanediamide

> <PUBCHEM_IUPAC_NAME_MARKUP>
(2<I>S</I>)-<I>N</I>-[(2<I>S</I>)-1-[[(2<I>S</I>)-1-[[2-[[(2<I>S</I>)-4-amino-1-[[(2<I>S</I>)-5-amino-1-[[(2<I>S</I>)-1-[[(2<I>S</I>)-1-[[(2<I>S</I>)-1-[[2-[[(2<I>S</I>)-1-[[(2<I>S</I>)-1-[[(2<I>S</I>)-1-amino-4-methylsulfanyl-1-oxobutan-2-yl]amino]-4-methyl-1-oxopentan-2-yl]amino]-3-(1<I>H</I>-imidazol-5-yl)-1-oxopropan-2-yl]amino]-2-oxoethyl]amino]-3-methyl-1-oxobutan-2-yl]amino]-1-oxopropan-2-yl]amino]-3-(1<I>H</I>-indol-3-yl)-1-oxopropan-2-yl]amino]-1,5-dioxopentan-2-yl]amino]-1,4-dioxobutan-2-yl]amino]-2-oxoethyl]amino]-4-methyl-1-oxopentan-2-yl]amino]-5-carbamimidamido-1-oxopentan-2-yl]-2-[[(2<I>S</I>)-5-oxopyrrolidine-2-carbonyl]amino]pentanediamide

> <PUBCHEM_IUPAC_NAME>
(2S)-N-[(2S)-1-[[(2S)-1-[[2-[[(2S)-4-amino-1-[[(2S)-5-amino-1-[[(2S)-1-[[(2S)-1-[[(2S)-1-[[2-[[(2S)-1-[[(2S)-1-[[(2S)-1-amino-4-methylsulfanyl-1-oxobutan-2-yl]amino]-4-methyl-1-oxopentan-2-yl]amino]-3-(1H-imidazol-5-yl)-1-oxopropan-2-yl]amino]-2-oxoethyl]amino]-3-methyl-1-oxobutan-2-yl]amino]-1-oxopropan-2-yl]amino]-3-(1H-indol-3-yl)-1-oxopropan-2-yl]amino]-1,5-dioxopentan-2-yl]amino]-1,4-dioxobutan-2-yl]amino]-2-oxoethyl]amino]-4-methyl-1-oxopentan-2-yl]amino]-5-carbamimidamido-1-oxopentan-2-yl]-2-[[(2S)-5-oxopyrrolidine-2-carbonyl]amino]pentanediamide

> <PUBCHEM_IUPAC_SYSTEMATIC_NAME>
(2S)-N-[(2S)-1-[[(2S)-1-[[2-[[(2S)-4-azanyl-1-[[(2S)-5-azanyl-1-[[(2S)-1-[[(2S)-1-[[(2S)-1-[[2-[[(2S)-1-[[(2S)-1-[[(2S)-1-azanyl-4-methylsulfanyl-1-oxidanylidene-butan-2-yl]amino]-4-methyl-1-oxidanylidene-pentan-2-yl]amino]-3-(1H-imidazol-5-yl)-1-oxidanylidene-propan-2-yl]amino]-2-oxidanylidene-ethyl]amino]-3-methyl-1-oxidanylidene-butan-2-yl]amino]-1-oxidanylidene-propan-2-yl]amino]-3-(1H-indol-3-yl)-1-oxidanylidene-propan-2-yl]amino]-1,5-bis(oxidanylidene)pentan-2-yl]amino]-1,4-bis(oxidanylidene)butan-2-yl]amino]-2-oxidanylidene-ethyl]amino]-4-methyl-1-oxidanylidene-pentan-2-yl]amino]-5-carbamimidamido-1-oxidanylidene-pentan-2-yl]-2-[[(2S)-5-oxidanylidenepyrrolidin-2-yl]carbonylamino]pentanediamide

> <PUBCHEM_IUPAC_TRADITIONAL_NAME>
(2S)-N-[(1S)-1-[[(1S)-1-[[2-[[(1S)-3-amino-1-[[(1S)-4-amino-1-[[(1S)-2-[[(1S)-2-[[(1S)-1-[[2-[[(1S)-2-[[(1S)-1-[[(1S)-1-carbamoyl-3-(methylthio)propyl]carbamoyl]-3-methyl-butyl]amino]-1-(1H-imidazol-5-ylmethyl)-2-keto-ethyl]amino]-2-keto-ethyl]carbamoyl]-2-methyl-propyl]amino]-2-keto-1-methyl-ethyl]amino]-1-(1H-indol-3-ylmethyl)-2-keto-ethyl]carbamoyl]-4-keto-butyl]carbamoyl]-3-keto-propyl]amino]-2-keto-ethyl]carbamoyl]-3-methyl-butyl]carbamoyl]-4-guanidino-butyl]-2-[[(2S)-5-ketoprolyl]amino]glutaramide

> <PUBCHEM_IUPAC_INCHI>
InChI=1S/C71H110N24O18S/c1-34(2)24-47(92-62(105)43(14-11-22-79-71(76)77)89-64(107)45(15-18-52(72)96)90-63(106)44-17-20-55(99)85-44)61(104)81-31-56(100)87-51(28-54(74)98)69(112)91-46(16-19-53(73)97)65(108)94-49(26-38-29-80-41-13-10-9-12-40(38)41)66(109)84-37(7)60(103)95-58(36(5)6)70(113)82-32-57(101)86-50(27-39-30-78-33-83-39)68(111)93-48(25-35(3)4)67(110)88-42(59(75)102)21-23-114-8/h9-10,12-13,29-30,33-37,42-51,58,80H,11,14-28,31-32H2,1-8H3,(H2,72,96)(H2,73,97)(H2,74,98)(H2,75,102)(H,78,83)(H,81,104)(H,82,113)(H,84,109)(H,85,99)(H,86,101)(H,87,100)(H,88,110)(H,89,107)(H,90,106)(H,91,112)(H,92,105)(H,93,111)(H,94,108)(H,95,103)(H4,76,77,79)/t37-,42-,43-,44-,45-,46-,47-,48-,49-,50-,51-,58-/m0/s1

> <PUBCHEM_IUPAC_INCHIKEY>
QXZBMSIDSOZZHK-DOPDSADYSA-N

> <PUBCHEM_XLOGP3_AA>
-4.4

> <PUBCHEM_EXACT_MASS>
1618.81506393

> <PUBCHEM_MOLECULAR_FORMULA>
C71H110N24O18S

> <PUBCHEM_MOLECULAR_WEIGHT>
1619.9

> <PUBCHEM_SMILES>
C[C@@H](C(=O)N[C@@H](C(C)C)C(=O)NCC(=O)N[C@@H](CC1=CN=CN1)C(=O)N[C@@H](CC(C)C)C(=O)N[C@@H](CCSC)C(=O)N)NC(=O)[C@H](CC2=CNC3=CC=CC=C32)NC(=O)[C@H](CCC(=O)N)NC(=O)[C@H](CC(=O)N)NC(=O)CNC(=O)[C@H](CC(C)C)NC(=O)[C@H](CCCNC(=N)N)NC(=O)[C@H](CCC(=O)N)NC(=O)[C@@H]4CCC(=O)N4

> <PUBCHEM_CONNECTIVITY_SMILES>
CC(C)CC(C(=O)NCC(=O)NC(CC(=O)N)C(=O)NC(CCC(=O)N)C(=O)NC(CC1=CNC2=CC=CC=C21)C(=O)NC(C)C(=O)NC(C(C)C)C(=O)NCC(=O)NC(CC3=CN=CN3)C(=O)NC(CC(C)C)C(=O)NC(CCSC)C(=O)N)NC(=O)C(CCCNC(=N)N)NC(=O)C(CCC(=O)N)NC(=O)C4CCC(=O)N4

> <PUBCHEM_CACTVS_TPSA>
711

> <PUBCHEM_MONOISOTOPIC_WEIGHT>
1618.81506393

> <PUBCHEM_TOTAL_CHARGE>
0

> <PUBCHEM_HEAVY_ATOM_COUNT>
114

> <PUBCHEM_ATOM_DEF_STEREO_COUNT>
12

> <PUBCHEM_ATOM_UDEF_STEREO_COUNT>
0

> <PUBCHEM_BOND_DEF_STEREO_COUNT>
0

> <PUBCHEM_BOND_UDEF_STEREO_COUNT>
0

> <PUBCHEM_ISOTOPIC_ATOM_COUNT>
0

> <PUBCHEM_COMPONENT_COUNT>
1

> <PUBCHEM_CACTVS_TAUTO_COUNT>
-1

> <PUBCHEM_COORDINATE_TYPE>
1
5
255

> <PUBCHEM_BONDANNOTATIONS>
103  108  8
105  109  8
108  109  8
45  21  5
47  22  6
48  23  5
60  24  5
67  26  6
83  27  5
69  29  5
79  30  6
72  31  5
71  32  5
87  33  6
34  89  8
34  91  8
37  113  8
37  98  8
40  111  8
40  113  8
44  53  6
76  85  8
76  91  8
85  103  8
85  89  8
89  105  8
98  111  8

$$$$
